version 2
1
9
.tran 10n 80u{return}.kicad adjustpaths{return}.save all{return}.probe alli
0
